REMARK  15 active torsions:
REMARK  status: ('A' for Active; 'I' for Inactive)
REMARK    1  A    between atoms: P_1  and  O_7 
REMARK    2  A    between atoms: P_1  and  O_8 
REMARK    3  A    between atoms: P_1  and  O_9 
REMARK    4  A    between atoms: P_2  and  O_8 
REMARK    5  A    between atoms: P_2  and  O_11 
REMARK    6  A    between atoms: P_2  and  O_12 
REMARK    7  A    between atoms: P_3  and  O_11 
REMARK    8  A    between atoms: P_3  and  O_14 
REMARK    9  A    between atoms: P_3  and  O_15 
REMARK   10  A    between atoms: O_5  and  C_22 
REMARK   11  A    between atoms: O_6  and  C_23 
REMARK   12  A    between atoms: O_7  and  C_26 
REMARK   13  A    between atoms: N_17  and  C_24 
REMARK   14  A    between atoms: N_21  and  C_30 
REMARK   15  A    between atoms: C_25  and  C_26 
ROOT
HETATM    1  P   UNK     0       2.427  -1.686  -1.603  0.00  0.00     0.401 P 
HETATM    2  O   UNK     0       1.972  -0.782  -2.712  0.00  0.00    -0.631 OA
ENDROOT
BRANCH   1   3
HETATM    3  O   UNK     0       1.321  -1.959  -0.454  0.00  0.00    -0.294 OA
BRANCH   3   4
HETATM    4  C   UNK     0       0.084  -2.563  -0.791  0.00  0.00     0.215 C 
BRANCH   4   5
HETATM    5  C   UNK     0      -0.760  -2.701   0.469  0.00  0.00     0.180 C 
HETATM    6  O   UNK     0      -1.018  -1.378   0.993  0.00  0.00    -0.353 OA
HETATM    7  C   UNK     0      -2.429  -1.107   0.897  0.00  0.00     0.262 C 
HETATM    8  C   UNK     0      -2.990  -2.124  -0.086  0.00  0.00     0.198 C 
HETATM    9  C   UNK     0      -2.123  -3.334   0.205  0.00  0.00     0.182 C 
BRANCH   7  10
HETATM   10  N   UNK     0      -2.639   0.283   0.499  0.00  0.00    -0.294 N 
HETATM   11  C   UNK     0      -1.841   1.032  -0.320  0.00  0.00     0.167 A 
HETATM   12  N   UNK     0      -0.707   0.651  -0.928  0.00  0.00    -0.222 NA
HETATM   13  C   UNK     0      -2.454   2.273  -0.391  0.00  0.00     0.149 A 
HETATM   14  C   UNK     0      -0.198   1.667  -1.658  0.00  0.00     0.237 A 
HETATM   15  N   UNK     0      -0.682   2.922  -1.820  0.00  0.00    -0.222 NA
HETATM   16  C   UNK     0      -1.832   3.238  -1.177  0.00  0.00     0.155 A 
HETATM   17  N   UNK     0      -3.601   2.292   0.362  0.00  0.00    -0.236 NA
HETATM   18  C   UNK     0      -3.683   1.085   0.882  0.00  0.00     0.214 A 
BRANCH  16  19
HETATM   19  N   UNK     0      -2.384   4.524  -1.305  0.00  0.00    -0.382 N 
HETATM   20  H   UNK     0      -3.242   4.762  -0.826  0.00  0.00     0.157 HD
HETATM   21  H   UNK     0      -1.913   5.208  -1.882  0.00  0.00     0.157 HD
ENDBRANCH  16  19
ENDBRANCH   7  10
BRANCH   8  22
HETATM   22  O   UNK     0      -4.365  -2.364   0.131  0.00  0.00    -0.388 OA
HETATM   23  H   UNK     0      -4.494  -2.576   1.071  0.00  0.00     0.210 HD
ENDBRANCH   8  22
BRANCH   9  24
HETATM   24  O   UNK     0      -2.576  -3.967   1.401  0.00  0.00    -0.390 OA
HETATM   25  H   UNK     0      -3.431  -4.385   1.201  0.00  0.00     0.210 HD
ENDBRANCH   9  24
ENDBRANCH   4   5
ENDBRANCH   3   4
ENDBRANCH   1   3
BRANCH   1  26
HETATM   26  O   UNK     0       3.722  -1.149  -0.801  0.00  0.00    -0.195 OA
BRANCH  26  27
HETATM   27  P   UNK     0       3.969   0.204   0.045  0.00  0.00     0.410 P 
HETATM   28  O   UNK     0       5.334   0.338   0.652  0.00  0.00    -0.631 OA
BRANCH  27  29
HETATM   29  O   UNK     0       2.756   0.205   1.112  0.00  0.00    -0.195 OA
BRANCH  29  30
HETATM   30  P   UNK     0       2.275   1.303   2.195  0.00  0.00     0.399 P 
HETATM   31  O   UNK     0       3.305   1.655   3.228  0.00  0.00    -0.631 OA
BRANCH  30  32
HETATM   32  O   UNK     0       1.778   2.534   1.273  0.00  0.00    -0.307 OA
HETATM   33  H   UNK     0       1.515   3.375   1.705  0.00  0.00     0.222 HD
ENDBRANCH  30  32
BRANCH  30  34
HETATM   34  O   UNK     0       0.898   0.687   2.775  0.00  0.00    -0.307 OA
HETATM   35  H   UNK     0       0.446   1.145   3.515  0.00  0.00     0.222 HD
ENDBRANCH  30  34
ENDBRANCH  29  30
ENDBRANCH  27  29
BRANCH  27  36
HETATM   36  O   UNK     0       3.565   1.383  -0.985  0.00  0.00    -0.307 OA
HETATM   37  H   UNK     0       4.201   1.640  -1.686  0.00  0.00     0.222 HD
ENDBRANCH  27  36
ENDBRANCH  26  27
ENDBRANCH   1  26
BRANCH   1  38
HETATM   38  O   UNK     0       2.877  -3.162  -2.087  0.00  0.00    -0.307 OA
HETATM   39  H   UNK     0       2.313  -3.644  -2.729  0.00  0.00     0.222 HD
ENDBRANCH   1  38
TORSDOF 15
