MODEL 1
REMARK VINA RESULT:      -8.3      0.000      0.000
REMARK  15 active torsions:
REMARK  status: ('A' for Active; 'I' for Inactive)
REMARK    1  A    between atoms: P_1  and  O_7 
REMARK    2  A    between atoms: P_1  and  O_8 
REMARK    3  A    between atoms: P_1  and  O_9 
REMARK    4  A    between atoms: P_2  and  O_8 
REMARK    5  A    between atoms: P_2  and  O_11 
REMARK    6  A    between atoms: P_2  and  O_12 
REMARK    7  A    between atoms: P_3  and  O_11 
REMARK    8  A    between atoms: P_3  and  O_14 
REMARK    9  A    between atoms: P_3  and  O_15 
REMARK   10  A    between atoms: O_5  and  C_22 
REMARK   11  A    between atoms: O_6  and  C_23 
REMARK   12  A    between atoms: O_7  and  C_26 
REMARK   13  A    between atoms: N_17  and  C_24 
REMARK   14  A    between atoms: N_21  and  C_30 
REMARK   15  A    between atoms: C_25  and  C_26 
ROOT
HETATM    1  P   UNK     0     -31.020 -37.193   3.516  0.00  0.00     0.401 P 
HETATM    2  O   UNK     0     -29.566 -37.234   3.143  0.00  0.00    -0.631 OA
ENDROOT
BRANCH   1   3
HETATM    3  O   UNK     0     -31.958 -36.358   2.496  0.00  0.00    -0.294 OA
BRANCH   3   4
HETATM    4  C   UNK     0     -33.070 -36.986   1.881  0.00  0.00     0.215 C 
BRANCH   4   5
HETATM    5  C   UNK     0     -32.905 -36.916   0.369  0.00  0.00     0.180 C 
HETATM    6  O   UNK     0     -31.492 -36.940   0.062  0.00  0.00    -0.353 OA
HETATM    7  C   UNK     0     -31.190 -38.158  -0.643  0.00  0.00     0.262 C 
HETATM    8  C   UNK     0     -32.367 -39.091  -0.402  0.00  0.00     0.198 C 
HETATM    9  C   UNK     0     -33.523 -38.111  -0.352  0.00  0.00     0.182 C 
BRANCH   7  10
HETATM   10  N   UNK     0     -29.908 -38.689  -0.187  0.00  0.00    -0.294 N 
HETATM   11  C   UNK     0     -28.664 -38.291  -0.591  0.00  0.00     0.167 A 
HETATM   12  N   UNK     0     -28.361 -37.335  -1.483  0.00  0.00    -0.222 NA
HETATM   13  C   UNK     0     -27.778 -39.085   0.120  0.00  0.00     0.149 A 
HETATM   14  C   UNK     0     -27.022 -37.226  -1.622  0.00  0.00     0.237 A 
HETATM   15  N   UNK     0     -26.044 -37.927  -1.000  0.00  0.00    -0.222 NA
HETATM   16  C   UNK     0     -26.422 -38.877  -0.110  0.00  0.00     0.155 A 
HETATM   17  N   UNK     0     -28.454 -39.951   0.943  0.00  0.00    -0.236 NA
HETATM   18  C   UNK     0     -29.728 -39.688   0.735  0.00  0.00     0.214 A 
BRANCH  16  19
HETATM   19  N   UNK     0     -25.454 -39.639   0.566  0.00  0.00    -0.382 N 
HETATM   20  H   UNK     0     -25.486 -40.649   0.537  0.00  0.00     0.157 HD
HETATM   21  H   UNK     0     -24.725 -39.164   1.083  0.00  0.00     0.157 HD
ENDBRANCH  16  19
ENDBRANCH   7  10
BRANCH   8  22
HETATM   22  O   UNK     0     -32.500 -40.050  -1.430  0.00  0.00    -0.388 OA
HETATM   23  H   UNK     0     -31.669 -40.076  -1.933  0.00  0.00     0.210 HD
ENDBRANCH   8  22
BRANCH   9  24
HETATM   24  O   UNK     0     -33.871 -37.718  -1.679  0.00  0.00    -0.390 OA
HETATM   25  H   UNK     0     -34.105 -36.774  -1.649  0.00  0.00     0.210 HD
ENDBRANCH   9  24
ENDBRANCH   4   5
ENDBRANCH   3   4
ENDBRANCH   1   3
BRANCH   1  26
HETATM   26  O   UNK     0     -31.313 -36.541   4.964  0.00  0.00    -0.195 OA
BRANCH  26  27
HETATM   27  P   UNK     0     -31.948 -37.170   6.309  0.00  0.00     0.410 P 
HETATM   28  O   UNK     0     -33.363 -37.651   6.184  0.00  0.00    -0.631 OA
BRANCH  27  29
HETATM   29  O   UNK     0     -31.730 -36.004   7.406  0.00  0.00    -0.195 OA
BRANCH  29  30
HETATM   30  P   UNK     0     -32.532 -35.634   8.759  0.00  0.00     0.399 P 
HETATM   31  O   UNK     0     -31.841 -36.042  10.027  0.00  0.00    -0.631 OA
BRANCH  30  32
HETATM   32  O   UNK     0     -32.801 -34.048   8.603  0.00  0.00    -0.307 OA
HETATM   33  H   UNK     0     -33.549 -33.643   9.092  0.00  0.00     0.222 HD
ENDBRANCH  30  32
BRANCH  30  34
HETATM   34  O   UNK     0     -33.992 -36.288   8.526  0.00  0.00    -0.307 OA
HETATM   35  H   UNK     0     -34.465 -36.109   7.686  0.00  0.00     0.222 HD
ENDBRANCH  30  34
ENDBRANCH  29  30
ENDBRANCH  27  29
BRANCH  27  36
HETATM   36  O   UNK     0     -30.882 -38.303   6.747  0.00  0.00    -0.307 OA
HETATM   37  H   UNK     0     -31.095 -38.888   7.505  0.00  0.00     0.222 HD
ENDBRANCH  27  36
ENDBRANCH  26  27
ENDBRANCH   1  26
BRANCH   1  38
HETATM   38  O   UNK     0     -31.725 -38.645   3.614  0.00  0.00    -0.307 OA
HETATM   39  H   UNK     0     -31.399 -39.288   4.279  0.00  0.00     0.222 HD
ENDBRANCH   1  38
TORSDOF 15
ENDMDL
MODEL 2
REMARK VINA RESULT:      -8.2      4.054      6.842
REMARK  15 active torsions:
REMARK  status: ('A' for Active; 'I' for Inactive)
REMARK    1  A    between atoms: P_1  and  O_7 
REMARK    2  A    between atoms: P_1  and  O_8 
REMARK    3  A    between atoms: P_1  and  O_9 
REMARK    4  A    between atoms: P_2  and  O_8 
REMARK    5  A    between atoms: P_2  and  O_11 
REMARK    6  A    between atoms: P_2  and  O_12 
REMARK    7  A    between atoms: P_3  and  O_11 
REMARK    8  A    between atoms: P_3  and  O_14 
REMARK    9  A    between atoms: P_3  and  O_15 
REMARK   10  A    between atoms: O_5  and  C_22 
REMARK   11  A    between atoms: O_6  and  C_23 
REMARK   12  A    between atoms: O_7  and  C_26 
REMARK   13  A    between atoms: N_17  and  C_24 
REMARK   14  A    between atoms: N_21  and  C_30 
REMARK   15  A    between atoms: C_25  and  C_26 
ROOT
HETATM    1  P   UNK     0     -34.101 -36.594  -0.453  0.00  0.00     0.401 P 
HETATM    2  O   UNK     0     -32.925 -35.705  -0.167  0.00  0.00    -0.631 OA
ENDROOT
BRANCH   1   3
HETATM    3  O   UNK     0     -33.781 -38.179  -0.399  0.00  0.00    -0.294 OA
BRANCH   3   4
HETATM    4  C   UNK     0     -32.578 -38.679  -0.959  0.00  0.00     0.215 C 
BRANCH   4   5
HETATM    5  C   UNK     0     -31.852 -39.512   0.088  0.00  0.00     0.180 C 
HETATM    6  O   UNK     0     -30.610 -39.983  -0.484  0.00  0.00    -0.353 OA
HETATM    7  C   UNK     0     -29.513 -39.377   0.224  0.00  0.00     0.262 C 
HETATM    8  C   UNK     0     -30.098 -38.191   0.976  0.00  0.00     0.198 C 
HETATM    9  C   UNK     0     -31.478 -38.710   1.331  0.00  0.00     0.182 C 
BRANCH   7  10
HETATM   10  N   UNK     0     -28.455 -39.019  -0.719  0.00  0.00    -0.294 N 
HETATM   11  C   UNK     0     -27.118 -38.917  -0.452  0.00  0.00     0.167 A 
HETATM   12  N   UNK     0     -26.500 -39.124   0.722  0.00  0.00    -0.222 NA
HETATM   13  C   UNK     0     -26.533 -38.555  -1.655  0.00  0.00     0.149 A 
HETATM   14  C   UNK     0     -25.170 -38.928   0.596  0.00  0.00     0.237 A 
HETATM   15  N   UNK     0     -24.464 -38.575  -0.505  0.00  0.00    -0.222 NA
HETATM   16  C   UNK     0     -25.152 -38.383  -1.656  0.00  0.00     0.155 A 
HETATM   17  N   UNK     0     -27.481 -38.437  -2.640  0.00  0.00    -0.236 NA
HETATM   18  C   UNK     0     -28.621 -38.722  -2.047  0.00  0.00     0.214 A 
BRANCH  16  19
HETATM   19  N   UNK     0     -24.476 -38.015  -2.832  0.00  0.00    -0.382 N 
HETATM   20  H   UNK     0     -23.467 -37.948  -2.842  0.00  0.00     0.157 HD
HETATM   21  H   UNK     0     -25.011 -37.818  -3.667  0.00  0.00     0.157 HD
ENDBRANCH  16  19
ENDBRANCH   7  10
BRANCH   8  22
HETATM   22  O   UNK     0     -29.326 -37.853   2.110  0.00  0.00    -0.388 OA
HETATM   23  H   UNK     0     -29.781 -38.189   2.901  0.00  0.00     0.210 HD
ENDBRANCH   8  22
BRANCH   9  24
HETATM   24  O   UNK     0     -31.380 -39.601   2.442  0.00  0.00    -0.390 OA
HETATM   25  H   UNK     0     -32.265 -39.975   2.591  0.00  0.00     0.210 HD
ENDBRANCH   9  24
ENDBRANCH   4   5
ENDBRANCH   3   4
ENDBRANCH   1   3
BRANCH   1  26
HETATM   26  O   UNK     0     -34.766 -36.363  -1.907  0.00  0.00    -0.195 OA
BRANCH  26  27
HETATM   27  P   UNK     0     -35.984 -35.418  -2.385  0.00  0.00     0.410 P 
HETATM   28  O   UNK     0     -36.177 -34.167  -1.580  0.00  0.00    -0.631 OA
BRANCH  27  29
HETATM   29  O   UNK     0     -37.254 -36.416  -2.390  0.00  0.00    -0.195 OA
BRANCH  29  30
HETATM   30  P   UNK     0     -37.363 -38.020  -2.552  0.00  0.00     0.399 P 
HETATM   31  O   UNK     0     -38.731 -38.521  -2.913  0.00  0.00    -0.631 OA
BRANCH  30  32
HETATM   32  O   UNK     0     -36.202 -38.359  -3.625  0.00  0.00    -0.307 OA
HETATM   33  H   UNK     0     -36.408 -38.299  -4.583  0.00  0.00     0.222 HD
ENDBRANCH  30  32
BRANCH  30  34
HETATM   34  O   UNK     0     -36.766 -38.585  -1.161  0.00  0.00    -0.307 OA
HETATM   35  H   UNK     0     -37.316 -39.185  -0.615  0.00  0.00     0.222 HD
ENDBRANCH  30  34
ENDBRANCH  29  30
ENDBRANCH  27  29
BRANCH  27  36
HETATM   36  O   UNK     0     -35.691 -35.176  -3.957  0.00  0.00    -0.307 OA
HETATM   37  H   UNK     0     -36.442 -34.980  -4.556  0.00  0.00     0.222 HD
ENDBRANCH  27  36
ENDBRANCH  26  27
ENDBRANCH   1  26
BRANCH   1  38
HETATM   38  O   UNK     0     -35.346 -36.401   0.560  0.00  0.00    -0.307 OA
HETATM   39  H   UNK     0     -36.254 -36.588   0.238  0.00  0.00     0.222 HD
ENDBRANCH   1  38
TORSDOF 15
ENDMDL
MODEL 3
REMARK VINA RESULT:      -8.1      2.700      4.718
REMARK  15 active torsions:
REMARK  status: ('A' for Active; 'I' for Inactive)
REMARK    1  A    between atoms: P_1  and  O_7 
REMARK    2  A    between atoms: P_1  and  O_8 
REMARK    3  A    between atoms: P_1  and  O_9 
REMARK    4  A    between atoms: P_2  and  O_8 
REMARK    5  A    between atoms: P_2  and  O_11 
REMARK    6  A    between atoms: P_2  and  O_12 
REMARK    7  A    between atoms: P_3  and  O_11 
REMARK    8  A    between atoms: P_3  and  O_14 
REMARK    9  A    between atoms: P_3  and  O_15 
REMARK   10  A    between atoms: O_5  and  C_22 
REMARK   11  A    between atoms: O_6  and  C_23 
REMARK   12  A    between atoms: O_7  and  C_26 
REMARK   13  A    between atoms: N_17  and  C_24 
REMARK   14  A    between atoms: N_21  and  C_30 
REMARK   15  A    between atoms: C_25  and  C_26 
ROOT
HETATM    1  P   UNK     0     -34.337 -37.498  -0.740  0.00  0.00     0.401 P 
HETATM    2  O   UNK     0     -34.960 -37.699  -2.091  0.00  0.00    -0.631 OA
ENDROOT
BRANCH   1   3
HETATM    3  O   UNK     0     -33.733 -38.838  -0.065  0.00  0.00    -0.294 OA
BRANCH   3   4
HETATM    4  C   UNK     0     -32.350 -39.129  -0.182  0.00  0.00     0.215 C 
BRANCH   4   5
HETATM    5  C   UNK     0     -31.814 -39.546   1.180  0.00  0.00     0.180 C 
HETATM    6  O   UNK     0     -30.476 -40.067   1.005  0.00  0.00    -0.353 OA
HETATM    7  C   UNK     0     -29.545 -39.189   1.664  0.00  0.00     0.262 C 
HETATM    8  C   UNK     0     -30.288 -37.882   1.899  0.00  0.00     0.198 C 
HETATM    9  C   UNK     0     -31.698 -38.379   2.156  0.00  0.00     0.182 C 
BRANCH   7  10
HETATM   10  N   UNK     0     -28.338 -39.050   0.853  0.00  0.00    -0.294 N 
HETATM   11  C   UNK     0     -28.274 -38.741  -0.477  0.00  0.00     0.167 A 
HETATM   12  N   UNK     0     -29.297 -38.500  -1.310  0.00  0.00    -0.222 NA
HETATM   13  C   UNK     0     -26.922 -38.728  -0.783  0.00  0.00     0.149 A 
HETATM   14  C   UNK     0     -28.841 -38.228  -2.552  0.00  0.00     0.237 A 
HETATM   15  N   UNK     0     -27.562 -38.180  -2.996  0.00  0.00    -0.222 NA
HETATM   16  C   UNK     0     -26.578 -38.433  -2.099  0.00  0.00     0.155 A 
HETATM   17  N   UNK     0     -26.170 -39.019   0.327  0.00  0.00    -0.236 NA
HETATM   18  C   UNK     0     -27.048 -39.207   1.290  0.00  0.00     0.214 A 
BRANCH  16  19
HETATM   19  N   UNK     0     -25.231 -38.399  -2.498  0.00  0.00    -0.382 N 
HETATM   20  H   UNK     0     -24.654 -39.226  -2.422  0.00  0.00     0.157 HD
HETATM   21  H   UNK     0     -24.846 -37.537  -2.861  0.00  0.00     0.157 HD
ENDBRANCH  16  19
ENDBRANCH   7  10
BRANCH   8  22
HETATM   22  O   UNK     0     -29.750 -37.157   2.985  0.00  0.00    -0.388 OA
HETATM   23  H   UNK     0     -29.574 -36.248   2.690  0.00  0.00     0.210 HD
ENDBRANCH   8  22
BRANCH   9  24
HETATM   24  O   UNK     0     -31.789 -38.882   3.488  0.00  0.00    -0.390 OA
HETATM   25  H   UNK     0     -32.673 -38.655   3.824  0.00  0.00     0.210 HD
ENDBRANCH   9  24
ENDBRANCH   4   5
ENDBRANCH   3   4
ENDBRANCH   1   3
BRANCH   1  26
HETATM   26  O   UNK     0     -35.346 -36.902   0.372  0.00  0.00    -0.195 OA
BRANCH  26  27
HETATM   27  P   UNK     0     -35.222 -35.625   1.352  0.00  0.00     0.410 P 
HETATM   28  O   UNK     0     -34.403 -34.487   0.818  0.00  0.00    -0.631 OA
BRANCH  27  29
HETATM   29  O   UNK     0     -34.669 -36.262   2.730  0.00  0.00    -0.195 OA
BRANCH  29  30
HETATM   30  P   UNK     0     -35.235 -37.445   3.673  0.00  0.00     0.399 P 
HETATM   31  O   UNK     0     -36.689 -37.321   4.026  0.00  0.00    -0.631 OA
BRANCH  30  32
HETATM   32  O   UNK     0     -34.838 -38.784   2.859  0.00  0.00    -0.307 OA
HETATM   33  H   UNK     0     -33.994 -39.236   3.072  0.00  0.00     0.222 HD
ENDBRANCH  30  32
BRANCH  30  34
HETATM   34  O   UNK     0     -34.217 -37.451   4.928  0.00  0.00    -0.307 OA
HETATM   35  H   UNK     0     -33.716 -38.269   5.130  0.00  0.00     0.222 HD
ENDBRANCH  30  34
ENDBRANCH  29  30
ENDBRANCH  27  29
BRANCH  27  36
HETATM   36  O   UNK     0     -36.757 -35.253   1.698  0.00  0.00    -0.307 OA
HETATM   37  H   UNK     0     -37.367 -35.023   0.965  0.00  0.00     0.222 HD
ENDBRANCH  27  36
ENDBRANCH  26  27
ENDBRANCH   1  26
BRANCH   1  38
HETATM   38  O   UNK     0     -33.106 -36.449  -0.722  0.00  0.00    -0.307 OA
HETATM   39  H   UNK     0     -32.771 -36.095  -1.574  0.00  0.00     0.222 HD
ENDBRANCH   1  38
TORSDOF 15
ENDMDL
MODEL 4
REMARK VINA RESULT:      -8.1      3.453      5.811
REMARK  15 active torsions:
REMARK  status: ('A' for Active; 'I' for Inactive)
REMARK    1  A    between atoms: P_1  and  O_7 
REMARK    2  A    between atoms: P_1  and  O_8 
REMARK    3  A    between atoms: P_1  and  O_9 
REMARK    4  A    between atoms: P_2  and  O_8 
REMARK    5  A    between atoms: P_2  and  O_11 
REMARK    6  A    between atoms: P_2  and  O_12 
REMARK    7  A    between atoms: P_3  and  O_11 
REMARK    8  A    between atoms: P_3  and  O_14 
REMARK    9  A    between atoms: P_3  and  O_15 
REMARK   10  A    between atoms: O_5  and  C_22 
REMARK   11  A    between atoms: O_6  and  C_23 
REMARK   12  A    between atoms: O_7  and  C_26 
REMARK   13  A    between atoms: N_17  and  C_24 
REMARK   14  A    between atoms: N_21  and  C_30 
REMARK   15  A    between atoms: C_25  and  C_26 
ROOT
HETATM    1  P   UNK     0     -36.058 -37.510   2.775  0.00  0.00     0.401 P 
HETATM    2  O   UNK     0     -36.857 -37.641   4.039  0.00  0.00    -0.631 OA
ENDROOT
BRANCH   1   3
HETATM    3  O   UNK     0     -34.460 -37.680   2.963  0.00  0.00    -0.294 OA
BRANCH   3   4
HETATM    4  C   UNK     0     -33.718 -38.464   2.044  0.00  0.00     0.215 C 
BRANCH   4   5
HETATM    5  C   UNK     0     -33.396 -37.619   0.819  0.00  0.00     0.180 C 
HETATM    6  O   UNK     0     -32.018 -37.189   0.910  0.00  0.00    -0.353 OA
HETATM    7  C   UNK     0     -31.268 -37.801  -0.156  0.00  0.00     0.262 C 
HETATM    8  C   UNK     0     -32.120 -38.954  -0.666  0.00  0.00     0.198 C 
HETATM    9  C   UNK     0     -33.519 -38.396  -0.488  0.00  0.00     0.182 C 
BRANCH   7  10
HETATM   10  N   UNK     0     -29.952 -38.204   0.333  0.00  0.00    -0.294 N 
HETATM   11  C   UNK     0     -28.847 -38.486  -0.420  0.00  0.00     0.167 A 
HETATM   12  N   UNK     0     -28.738 -38.448  -1.757  0.00  0.00    -0.222 NA
HETATM   13  C   UNK     0     -27.858 -38.818   0.492  0.00  0.00     0.149 A 
HETATM   14  C   UNK     0     -27.488 -38.790  -2.139  0.00  0.00     0.237 A 
HETATM   15  N   UNK     0     -26.429 -39.135  -1.368  0.00  0.00    -0.222 NA
HETATM   16  C   UNK     0     -26.611 -39.151  -0.025  0.00  0.00     0.155 A 
HETATM   17  N   UNK     0     -28.337 -38.743   1.776  0.00  0.00    -0.236 NA
HETATM   18  C   UNK     0     -29.594 -38.373   1.646  0.00  0.00     0.214 A 
BRANCH  16  19
HETATM   19  N   UNK     0     -25.550 -39.502   0.828  0.00  0.00    -0.382 N 
HETATM   20  H   UNK     0     -25.198 -38.838   1.505  0.00  0.00     0.157 HD
HETATM   21  H   UNK     0     -25.144 -40.425   0.757  0.00  0.00     0.157 HD
ENDBRANCH  16  19
ENDBRANCH   7  10
BRANCH   8  22
HETATM   22  O   UNK     0     -31.820 -39.278  -2.008  0.00  0.00    -0.388 OA
HETATM   23  H   UNK     0     -32.103 -40.193  -2.172  0.00  0.00     0.210 HD
ENDBRANCH   8  22
BRANCH   9  24
HETATM   24  O   UNK     0     -33.803 -37.479  -1.544  0.00  0.00    -0.390 OA
HETATM   25  H   UNK     0     -33.129 -36.779  -1.509  0.00  0.00     0.210 HD
ENDBRANCH   9  24
ENDBRANCH   4   5
ENDBRANCH   3   4
ENDBRANCH   1   3
BRANCH   1  26
HETATM   26  O   UNK     0     -36.230 -36.089   2.028  0.00  0.00    -0.195 OA
BRANCH  26  27
HETATM   27  P   UNK     0     -37.265 -35.600   0.888  0.00  0.00     0.410 P 
HETATM   28  O   UNK     0     -38.693 -36.002   1.106  0.00  0.00    -0.631 OA
BRANCH  27  29
HETATM   29  O   UNK     0     -36.609 -36.160  -0.478  0.00  0.00    -0.195 OA
BRANCH  29  30
HETATM   30  P   UNK     0     -37.228 -37.027  -1.693  0.00  0.00     0.399 P 
HETATM   31  O   UNK     0     -38.691 -36.804  -1.937  0.00  0.00    -0.631 OA
BRANCH  30  32
HETATM   32  O   UNK     0     -36.260 -36.660  -2.934  0.00  0.00    -0.307 OA
HETATM   33  H   UNK     0     -36.585 -36.805  -3.849  0.00  0.00     0.222 HD
ENDBRANCH  30  32
BRANCH  30  34
HETATM   34  O   UNK     0     -36.812 -38.545  -1.327  0.00  0.00    -0.307 OA
HETATM   35  H   UNK     0     -36.008 -38.702  -0.787  0.00  0.00     0.222 HD
ENDBRANCH  30  34
ENDBRANCH  29  30
ENDBRANCH  27  29
BRANCH  27  36
HETATM   36  O   UNK     0     -37.015 -34.005   0.799  0.00  0.00    -0.307 OA
HETATM   37  H   UNK     0     -36.208 -33.626   1.208  0.00  0.00     0.222 HD
ENDBRANCH  27  36
ENDBRANCH  26  27
ENDBRANCH   1  26
BRANCH   1  38
HETATM   38  O   UNK     0     -36.444 -38.581   1.627  0.00  0.00    -0.307 OA
HETATM   39  H   UNK     0     -37.200 -39.188   1.778  0.00  0.00     0.222 HD
ENDBRANCH   1  38
TORSDOF 15
ENDMDL
MODEL 5
REMARK VINA RESULT:      -8.1      3.069      5.128
REMARK  15 active torsions:
REMARK  status: ('A' for Active; 'I' for Inactive)
REMARK    1  A    between atoms: P_1  and  O_7 
REMARK    2  A    between atoms: P_1  and  O_8 
REMARK    3  A    between atoms: P_1  and  O_9 
REMARK    4  A    between atoms: P_2  and  O_8 
REMARK    5  A    between atoms: P_2  and  O_11 
REMARK    6  A    between atoms: P_2  and  O_12 
REMARK    7  A    between atoms: P_3  and  O_11 
REMARK    8  A    between atoms: P_3  and  O_14 
REMARK    9  A    between atoms: P_3  and  O_15 
REMARK   10  A    between atoms: O_5  and  C_22 
REMARK   11  A    between atoms: O_6  and  C_23 
REMARK   12  A    between atoms: O_7  and  C_26 
REMARK   13  A    between atoms: N_17  and  C_24 
REMARK   14  A    between atoms: N_21  and  C_30 
REMARK   15  A    between atoms: C_25  and  C_26 
ROOT
HETATM    1  P   UNK     0     -34.835 -37.253  -1.053  0.00  0.00     0.401 P 
HETATM    2  O   UNK     0     -35.101 -37.654  -2.475  0.00  0.00    -0.631 OA
ENDROOT
BRANCH   1   3
HETATM    3  O   UNK     0     -33.859 -38.253  -0.238  0.00  0.00    -0.294 OA
BRANCH   3   4
HETATM    4  C   UNK     0     -32.580 -38.573  -0.758  0.00  0.00     0.215 C 
BRANCH   4   5
HETATM    5  C   UNK     0     -31.839 -39.443   0.248  0.00  0.00     0.180 C 
HETATM    6  O   UNK     0     -30.629 -39.933  -0.374  0.00  0.00    -0.353 OA
HETATM    7  C   UNK     0     -29.494 -39.366   0.307  0.00  0.00     0.262 C 
HETATM    8  C   UNK     0     -30.024 -38.181   1.101  0.00  0.00     0.198 C 
HETATM    9  C   UNK     0     -31.404 -38.674   1.492  0.00  0.00     0.182 C 
BRANCH   7  10
HETATM   10  N   UNK     0     -28.460 -39.015  -0.664  0.00  0.00    -0.294 N 
HETATM   11  C   UNK     0     -27.116 -38.920  -0.434  0.00  0.00     0.167 A 
HETATM   12  N   UNK     0     -26.468 -39.128   0.723  0.00  0.00    -0.222 NA
HETATM   13  C   UNK     0     -26.561 -38.562  -1.652  0.00  0.00     0.149 A 
HETATM   14  C   UNK     0     -25.140 -38.939   0.561  0.00  0.00     0.237 A 
HETATM   15  N   UNK     0     -24.462 -38.592  -0.559  0.00  0.00    -0.222 NA
HETATM   16  C   UNK     0     -25.180 -38.398  -1.691  0.00  0.00     0.155 A 
HETATM   17  N   UNK     0     -27.534 -38.441  -2.612  0.00  0.00    -0.236 NA
HETATM   18  C   UNK     0     -28.660 -38.719  -1.988  0.00  0.00     0.214 A 
BRANCH  16  19
HETATM   19  N   UNK     0     -24.534 -38.035  -2.886  0.00  0.00    -0.382 N 
HETATM   20  H   UNK     0     -23.525 -37.991  -2.928  0.00  0.00     0.157 HD
HETATM   21  H   UNK     0     -25.091 -37.818  -3.702  0.00  0.00     0.157 HD
ENDBRANCH  16  19
ENDBRANCH   7  10
BRANCH   8  22
HETATM   22  O   UNK     0     -29.207 -37.884   2.214  0.00  0.00    -0.388 OA
HETATM   23  H   UNK     0     -28.283 -37.840   1.912  0.00  0.00     0.210 HD
ENDBRANCH   8  22
BRANCH   9  24
HETATM   24  O   UNK     0     -31.290 -39.588   2.582  0.00  0.00    -0.390 OA
HETATM   25  H   UNK     0     -30.975 -39.084   3.352  0.00  0.00     0.210 HD
ENDBRANCH   9  24
ENDBRANCH   4   5
ENDBRANCH   3   4
ENDBRANCH   1   3
BRANCH   1  26
HETATM   26  O   UNK     0     -36.161 -37.144  -0.137  0.00  0.00    -0.195 OA
BRANCH  26  27
HETATM   27  P   UNK     0     -36.704 -35.963   0.821  0.00  0.00     0.410 P 
HETATM   28  O   UNK     0     -36.705 -34.594   0.209  0.00  0.00    -0.631 OA
BRANCH  27  29
HETATM   29  O   UNK     0     -35.790 -36.106   2.145  0.00  0.00    -0.195 OA
BRANCH  29  30
HETATM   30  P   UNK     0     -35.650 -37.291   3.234  0.00  0.00     0.399 P 
HETATM   31  O   UNK     0     -36.927 -37.649   3.937  0.00  0.00    -0.631 OA
BRANCH  30  32
HETATM   32  O   UNK     0     -34.974 -38.490   2.387  0.00  0.00    -0.307 OA
HETATM   33  H   UNK     0     -35.452 -38.850   1.609  0.00  0.00     0.222 HD
ENDBRANCH  30  32
BRANCH  30  34
HETATM   34  O   UNK     0     -34.452 -36.786   4.194  0.00  0.00    -0.307 OA
HETATM   35  H   UNK     0     -34.672 -36.272   5.000  0.00  0.00     0.222 HD
ENDBRANCH  30  34
ENDBRANCH  29  30
ENDBRANCH  27  29
BRANCH  27  36
HETATM   36  O   UNK     0     -38.153 -36.492   1.304  0.00  0.00    -0.307 OA
HETATM   37  H   UNK     0     -38.844 -35.837   1.540  0.00  0.00     0.222 HD
ENDBRANCH  27  36
ENDBRANCH  26  27
ENDBRANCH   1  26
BRANCH   1  38
HETATM   38  O   UNK     0     -34.150 -35.797  -0.887  0.00  0.00    -0.307 OA
HETATM   39  H   UNK     0     -33.800 -35.343  -1.683  0.00  0.00     0.222 HD
ENDBRANCH   1  38
TORSDOF 15
ENDMDL
MODEL 6
REMARK VINA RESULT:      -8.0      5.100      7.948
REMARK  15 active torsions:
REMARK  status: ('A' for Active; 'I' for Inactive)
REMARK    1  A    between atoms: P_1  and  O_7 
REMARK    2  A    between atoms: P_1  and  O_8 
REMARK    3  A    between atoms: P_1  and  O_9 
REMARK    4  A    between atoms: P_2  and  O_8 
REMARK    5  A    between atoms: P_2  and  O_11 
REMARK    6  A    between atoms: P_2  and  O_12 
REMARK    7  A    between atoms: P_3  and  O_11 
REMARK    8  A    between atoms: P_3  and  O_14 
REMARK    9  A    between atoms: P_3  and  O_15 
REMARK   10  A    between atoms: O_5  and  C_22 
REMARK   11  A    between atoms: O_6  and  C_23 
REMARK   12  A    between atoms: O_7  and  C_26 
REMARK   13  A    between atoms: N_17  and  C_24 
REMARK   14  A    between atoms: N_21  and  C_30 
REMARK   15  A    between atoms: C_25  and  C_26 
ROOT
HETATM    1  P   UNK     0     -30.017 -39.150   1.581  0.00  0.00     0.401 P 
HETATM    2  O   UNK     0     -29.493 -40.178   2.542  0.00  0.00    -0.631 OA
ENDROOT
BRANCH   1   3
HETATM    3  O   UNK     0     -31.143 -38.163   2.192  0.00  0.00    -0.294 OA
BRANCH   3   4
HETATM    4  C   UNK     0     -32.466 -38.632   2.387  0.00  0.00     0.215 C 
BRANCH   4   5
HETATM    5  C   UNK     0     -33.330 -37.483   2.889  0.00  0.00     0.180 C 
HETATM    6  O   UNK     0     -33.789 -36.724   1.747  0.00  0.00    -0.353 OA
HETATM    7  C   UNK     0     -35.219 -36.856   1.645  0.00  0.00     0.262 C 
HETATM    8  C   UNK     0     -35.596 -38.058   2.500  0.00  0.00     0.198 C 
HETATM    9  C   UNK     0     -34.581 -37.958   3.623  0.00  0.00     0.182 C 
BRANCH   7  10
HETATM   10  N   UNK     0     -35.604 -36.982   0.241  0.00  0.00    -0.294 N 
HETATM   11  C   UNK     0     -35.462 -36.037  -0.737  0.00  0.00     0.167 A 
HETATM   12  N   UNK     0     -34.941 -34.807  -0.615  0.00  0.00    -0.222 NA
HETATM   13  C   UNK     0     -35.971 -36.622  -1.885  0.00  0.00     0.149 A 
HETATM   14  C   UNK     0     -34.968 -34.162  -1.802  0.00  0.00     0.237 A 
HETATM   15  N   UNK     0     -35.430 -34.603  -2.997  0.00  0.00    -0.222 NA
HETATM   16  C   UNK     0     -35.943 -35.856  -3.047  0.00  0.00     0.155 A 
HETATM   17  N   UNK     0     -36.415 -37.894  -1.627  0.00  0.00    -0.236 NA
HETATM   18  C   UNK     0     -36.181 -38.079  -0.344  0.00  0.00     0.214 A 
BRANCH  16  19
HETATM   19  N   UNK     0     -36.439 -36.370  -4.257  0.00  0.00    -0.382 N 
HETATM   20  H   UNK     0     -36.567 -35.763  -5.056  0.00  0.00     0.157 HD
HETATM   21  H   UNK     0     -36.667 -37.353  -4.319  0.00  0.00     0.157 HD
ENDBRANCH  16  19
ENDBRANCH   7  10
BRANCH   8  22
HETATM   22  O   UNK     0     -36.932 -37.984   2.953  0.00  0.00    -0.388 OA
HETATM   23  H   UNK     0     -37.486 -37.663   2.222  0.00  0.00     0.210 HD
ENDBRANCH   8  22
BRANCH   9  24
HETATM   24  O   UNK     0     -34.988 -36.945   4.542  0.00  0.00    -0.390 OA
HETATM   25  H   UNK     0     -35.274 -36.177   4.019  0.00  0.00     0.210 HD
ENDBRANCH   9  24
ENDBRANCH   4   5
ENDBRANCH   3   4
ENDBRANCH   1   3
BRANCH   1  26
HETATM   26  O   UNK     0     -30.697 -39.772   0.254  0.00  0.00    -0.195 OA
BRANCH  26  27
HETATM   27  P   UNK     0     -30.985 -39.130  -1.199  0.00  0.00     0.410 P 
HETATM   28  O   UNK     0     -32.067 -39.801  -1.991  0.00  0.00    -0.631 OA
BRANCH  27  29
HETATM   29  O   UNK     0     -29.533 -39.136  -1.906  0.00  0.00    -0.195 OA
BRANCH  29  30
HETATM   30  P   UNK     0     -28.625 -37.946  -2.513  0.00  0.00     0.399 P 
HETATM   31  O   UNK     0     -28.416 -36.784  -1.587  0.00  0.00    -0.631 OA
BRANCH  30  32
HETATM   32  O   UNK     0     -27.277 -38.711  -2.972  0.00  0.00    -0.307 OA
HETATM   33  H   UNK     0     -27.302 -39.683  -3.099  0.00  0.00     0.222 HD
ENDBRANCH  30  32
BRANCH  30  34
HETATM   34  O   UNK     0     -29.351 -37.591  -3.913  0.00  0.00    -0.307 OA
HETATM   35  H   UNK     0     -28.847 -37.686  -4.748  0.00  0.00     0.222 HD
ENDBRANCH  30  34
ENDBRANCH  29  30
ENDBRANCH  27  29
BRANCH  27  36
HETATM   36  O   UNK     0     -31.244 -37.565  -0.886  0.00  0.00    -0.307 OA
HETATM   37  H   UNK     0     -31.244 -36.925  -1.629  0.00  0.00     0.222 HD
ENDBRANCH  27  36
ENDBRANCH  26  27
ENDBRANCH   1  26
BRANCH   1  38
HETATM   38  O   UNK     0     -28.889 -38.156   0.987  0.00  0.00    -0.307 OA
HETATM   39  H   UNK     0     -28.789 -37.262   1.379  0.00  0.00     0.222 HD
ENDBRANCH   1  38
TORSDOF 15
ENDMDL
MODEL 7
REMARK VINA RESULT:      -8.0      3.647      6.603
REMARK  15 active torsions:
REMARK  status: ('A' for Active; 'I' for Inactive)
REMARK    1  A    between atoms: P_1  and  O_7 
REMARK    2  A    between atoms: P_1  and  O_8 
REMARK    3  A    between atoms: P_1  and  O_9 
REMARK    4  A    between atoms: P_2  and  O_8 
REMARK    5  A    between atoms: P_2  and  O_11 
REMARK    6  A    between atoms: P_2  and  O_12 
REMARK    7  A    between atoms: P_3  and  O_11 
REMARK    8  A    between atoms: P_3  and  O_14 
REMARK    9  A    between atoms: P_3  and  O_15 
REMARK   10  A    between atoms: O_5  and  C_22 
REMARK   11  A    between atoms: O_6  and  C_23 
REMARK   12  A    between atoms: O_7  and  C_26 
REMARK   13  A    between atoms: N_17  and  C_24 
REMARK   14  A    between atoms: N_21  and  C_30 
REMARK   15  A    between atoms: C_25  and  C_26 
ROOT
HETATM    1  P   UNK     0     -34.901 -38.001   1.018  0.00  0.00     0.401 P 
HETATM    2  O   UNK     0     -34.866 -37.931   2.517  0.00  0.00    -0.631 OA
ENDROOT
BRANCH   1   3
HETATM    3  O   UNK     0     -33.721 -38.887   0.353  0.00  0.00    -0.294 OA
BRANCH   3   4
HETATM    4  C   UNK     0     -32.379 -38.436   0.412  0.00  0.00     0.215 C 
BRANCH   4   5
HETATM    5  C   UNK     0     -31.574 -39.389   1.285  0.00  0.00     0.180 C 
HETATM    6  O   UNK     0     -30.476 -39.910   0.501  0.00  0.00    -0.353 OA
HETATM    7  C   UNK     0     -29.238 -39.434   1.062  0.00  0.00     0.262 C 
HETATM    8  C   UNK     0     -29.602 -38.262   1.961  0.00  0.00     0.198 C 
HETATM    9  C   UNK     0     -30.951 -38.702   2.497  0.00  0.00     0.182 C 
BRANCH   7  10
HETATM   10  N   UNK     0     -28.308 -39.092  -0.013  0.00  0.00    -0.294 N 
HETATM   11  C   UNK     0     -26.949 -38.984   0.081  0.00  0.00     0.167 A 
HETATM   12  N   UNK     0     -26.187 -39.169   1.170  0.00  0.00    -0.222 NA
HETATM   13  C   UNK     0     -26.522 -38.642  -1.193  0.00  0.00     0.149 A 
HETATM   14  C   UNK     0     -24.884 -38.974   0.874  0.00  0.00     0.237 A 
HETATM   15  N   UNK     0     -24.324 -38.639  -0.314  0.00  0.00    -0.222 NA
HETATM   16  C   UNK     0     -25.153 -38.469  -1.372  0.00  0.00     0.155 A 
HETATM   17  N   UNK     0     -27.587 -38.543  -2.052  0.00  0.00    -0.236 NA
HETATM   18  C   UNK     0     -28.642 -38.819  -1.314  0.00  0.00     0.214 A 
BRANCH  16  19
HETATM   19  N   UNK     0     -24.632 -38.121  -2.630  0.00  0.00    -0.382 N 
HETATM   20  H   UNK     0     -24.251 -38.832  -3.240  0.00  0.00     0.157 HD
HETATM   21  H   UNK     0     -24.643 -37.152  -2.918  0.00  0.00     0.157 HD
ENDBRANCH  16  19
ENDBRANCH   7  10
BRANCH   8  22
HETATM   22  O   UNK     0     -28.643 -38.058   2.977  0.00  0.00    -0.388 OA
HETATM   23  H   UNK     0     -27.924 -38.701   2.852  0.00  0.00     0.210 HD
ENDBRANCH   8  22
BRANCH   9  24
HETATM   24  O   UNK     0     -30.760 -39.670   3.528  0.00  0.00    -0.390 OA
HETATM   25  H   UNK     0     -30.314 -39.222   4.266  0.00  0.00     0.210 HD
ENDBRANCH   9  24
ENDBRANCH   4   5
ENDBRANCH   3   4
ENDBRANCH   1   3
BRANCH   1  26
HETATM   26  O   UNK     0     -34.793 -36.565   0.286  0.00  0.00    -0.195 OA
BRANCH  26  27
HETATM   27  P   UNK     0     -35.111 -36.113  -1.231  0.00  0.00     0.410 P 
HETATM   28  O   UNK     0     -34.621 -34.747  -1.607  0.00  0.00    -0.631 OA
BRANCH  27  29
HETATM   29  O   UNK     0     -36.710 -36.311  -1.353  0.00  0.00    -0.195 OA
BRANCH  29  30
HETATM   30  P   UNK     0     -37.621 -37.069  -2.452  0.00  0.00     0.399 P 
HETATM   31  O   UNK     0     -39.088 -36.766  -2.363  0.00  0.00    -0.631 OA
BRANCH  30  32
HETATM   32  O   UNK     0     -36.919 -36.666  -3.851  0.00  0.00    -0.307 OA
HETATM   33  H   UNK     0     -36.783 -35.716  -4.057  0.00  0.00     0.222 HD
ENDBRANCH  30  32
BRANCH  30  34
HETATM   34  O   UNK     0     -37.225 -38.625  -2.266  0.00  0.00    -0.307 OA
HETATM   35  H   UNK     0     -36.397 -38.852  -1.793  0.00  0.00     0.222 HD
ENDBRANCH  30  34
ENDBRANCH  29  30
ENDBRANCH  27  29
BRANCH  27  36
HETATM   36  O   UNK     0     -34.513 -37.319  -2.127  0.00  0.00    -0.307 OA
HETATM   37  H   UNK     0     -34.979 -37.575  -2.952  0.00  0.00     0.222 HD
ENDBRANCH  27  36
ENDBRANCH  26  27
ENDBRANCH   1  26
BRANCH   1  38
HETATM   38  O   UNK     0     -36.264 -38.625   0.410  0.00  0.00    -0.307 OA
HETATM   39  H   UNK     0     -37.037 -38.745   1.002  0.00  0.00     0.222 HD
ENDBRANCH   1  38
TORSDOF 15
ENDMDL
MODEL 8
REMARK VINA RESULT:      -8.0      4.099      6.756
REMARK  15 active torsions:
REMARK  status: ('A' for Active; 'I' for Inactive)
REMARK    1  A    between atoms: P_1  and  O_7 
REMARK    2  A    between atoms: P_1  and  O_8 
REMARK    3  A    between atoms: P_1  and  O_9 
REMARK    4  A    between atoms: P_2  and  O_8 
REMARK    5  A    between atoms: P_2  and  O_11 
REMARK    6  A    between atoms: P_2  and  O_12 
REMARK    7  A    between atoms: P_3  and  O_11 
REMARK    8  A    between atoms: P_3  and  O_14 
REMARK    9  A    between atoms: P_3  and  O_15 
REMARK   10  A    between atoms: O_5  and  C_22 
REMARK   11  A    between atoms: O_6  and  C_23 
REMARK   12  A    between atoms: O_7  and  C_26 
REMARK   13  A    between atoms: N_17  and  C_24 
REMARK   14  A    between atoms: N_21  and  C_30 
REMARK   15  A    between atoms: C_25  and  C_26 
ROOT
HETATM    1  P   UNK     0     -34.547 -37.036  -0.448  0.00  0.00     0.401 P 
HETATM    2  O   UNK     0     -35.006 -36.259   0.753  0.00  0.00    -0.631 OA
ENDROOT
BRANCH   1   3
HETATM    3  O   UNK     0     -32.979 -37.432  -0.439  0.00  0.00    -0.294 OA
BRANCH   3   4
HETATM    4  C   UNK     0     -32.553 -38.650  -1.026  0.00  0.00     0.215 C 
BRANCH   4   5
HETATM    5  C   UNK     0     -31.834 -39.483   0.027  0.00  0.00     0.180 C 
HETATM    6  O   UNK     0     -30.590 -39.957  -0.537  0.00  0.00    -0.353 OA
HETATM    7  C   UNK     0     -29.496 -39.351   0.176  0.00  0.00     0.262 C 
HETATM    8  C   UNK     0     -30.083 -38.163   0.924  0.00  0.00     0.198 C 
HETATM    9  C   UNK     0     -31.466 -38.680   1.271  0.00  0.00     0.182 C 
BRANCH   7  10
HETATM   10  N   UNK     0     -28.432 -38.997  -0.760  0.00  0.00    -0.294 N 
HETATM   11  C   UNK     0     -27.095 -38.905  -0.488  0.00  0.00     0.167 A 
HETATM   12  N   UNK     0     -26.484 -39.121   0.687  0.00  0.00    -0.222 NA
HETATM   13  C   UNK     0     -26.503 -38.541  -1.687  0.00  0.00     0.149 A 
HETATM   14  C   UNK     0     -25.152 -38.933   0.568  0.00  0.00     0.237 A 
HETATM   15  N   UNK     0     -24.438 -38.580  -0.529  0.00  0.00    -0.222 NA
HETATM   16  C   UNK     0     -25.121 -38.379  -1.682  0.00  0.00     0.155 A 
HETATM   17  N   UNK     0     -27.446 -38.413  -2.675  0.00  0.00    -0.236 NA
HETATM   18  C   UNK     0     -28.590 -38.692  -2.088  0.00  0.00     0.214 A 
BRANCH  16  19
HETATM   19  N   UNK     0     -24.438 -38.010  -2.853  0.00  0.00    -0.382 N 
HETATM   20  H   UNK     0     -24.546 -38.552  -3.700  0.00  0.00     0.157 HD
HETATM   21  H   UNK     0     -23.837 -37.197  -2.839  0.00  0.00     0.157 HD
ENDBRANCH  16  19
ENDBRANCH   7  10
BRANCH   8  22
HETATM   22  O   UNK     0     -29.318 -37.826   2.062  0.00  0.00    -0.388 OA
HETATM   23  H   UNK     0     -29.038 -36.899   1.978  0.00  0.00     0.210 HD
ENDBRANCH   8  22
BRANCH   9  24
HETATM   24  O   UNK     0     -31.376 -39.570   2.383  0.00  0.00    -0.390 OA
HETATM   25  H   UNK     0     -31.961 -39.223   3.078  0.00  0.00     0.210 HD
ENDBRANCH   9  24
ENDBRANCH   4   5
ENDBRANCH   3   4
ENDBRANCH   1   3
BRANCH   1  26
HETATM   26  O   UNK     0     -34.765 -36.271  -1.853  0.00  0.00    -0.195 OA
BRANCH  26  27
HETATM   27  P   UNK     0     -35.635 -36.660  -3.157  0.00  0.00     0.410 P 
HETATM   28  O   UNK     0     -35.697 -35.606  -4.222  0.00  0.00    -0.631 OA
BRANCH  27  29
HETATM   29  O   UNK     0     -37.068 -37.077  -2.540  0.00  0.00    -0.195 OA
BRANCH  29  30
HETATM   30  P   UNK     0     -38.197 -36.222  -1.763  0.00  0.00     0.399 P 
HETATM   31  O   UNK     0     -39.598 -36.449  -2.250  0.00  0.00    -0.631 OA
BRANCH  30  32
HETATM   32  O   UNK     0     -37.938 -36.597  -0.213  0.00  0.00    -0.307 OA
HETATM   33  H   UNK     0     -37.556 -37.474   0.007  0.00  0.00     0.222 HD
ENDBRANCH  30  32
BRANCH  30  34
HETATM   34  O   UNK     0     -37.665 -34.700  -1.876  0.00  0.00    -0.307 OA
HETATM   35  H   UNK     0     -37.584 -34.162  -1.060  0.00  0.00     0.222 HD
ENDBRANCH  30  34
ENDBRANCH  29  30
ENDBRANCH  27  29
BRANCH  27  36
HETATM   36  O   UNK     0     -35.005 -38.071  -3.634  0.00  0.00    -0.307 OA
HETATM   37  H   UNK     0     -35.561 -38.686  -4.159  0.00  0.00     0.222 HD
ENDBRANCH  27  36
ENDBRANCH  26  27
ENDBRANCH   1  26
BRANCH   1  38
HETATM   38  O   UNK     0     -35.317 -38.441  -0.667  0.00  0.00    -0.307 OA
HETATM   39  H   UNK     0     -35.685 -38.647  -1.553  0.00  0.00     0.222 HD
ENDBRANCH   1  38
TORSDOF 15
ENDMDL
MODEL 9
REMARK VINA RESULT:      -7.9      3.897      6.811
REMARK  15 active torsions:
REMARK  status: ('A' for Active; 'I' for Inactive)
REMARK    1  A    between atoms: P_1  and  O_7 
REMARK    2  A    between atoms: P_1  and  O_8 
REMARK    3  A    between atoms: P_1  and  O_9 
REMARK    4  A    between atoms: P_2  and  O_8 
REMARK    5  A    between atoms: P_2  and  O_11 
REMARK    6  A    between atoms: P_2  and  O_12 
REMARK    7  A    between atoms: P_3  and  O_11 
REMARK    8  A    between atoms: P_3  and  O_14 
REMARK    9  A    between atoms: P_3  and  O_15 
REMARK   10  A    between atoms: O_5  and  C_22 
REMARK   11  A    between atoms: O_6  and  C_23 
REMARK   12  A    between atoms: O_7  and  C_26 
REMARK   13  A    between atoms: N_17  and  C_24 
REMARK   14  A    between atoms: N_21  and  C_30 
REMARK   15  A    between atoms: C_25  and  C_26 
ROOT
HETATM    1  P   UNK     0     -35.051 -38.052   0.392  0.00  0.00     0.401 P 
HETATM    2  O   UNK     0     -34.823 -38.076   1.876  0.00  0.00    -0.631 OA
ENDROOT
BRANCH   1   3
HETATM    3  O   UNK     0     -33.758 -38.441  -0.499  0.00  0.00    -0.294 OA
BRANCH   3   4
HETATM    4  C   UNK     0     -32.470 -37.997  -0.109  0.00  0.00     0.215 C 
BRANCH   4   5
HETATM    5  C   UNK     0     -31.800 -39.086   0.719  0.00  0.00     0.180 C 
HETATM    6  O   UNK     0     -30.704 -39.634  -0.049  0.00  0.00    -0.353 OA
HETATM    7  C   UNK     0     -29.467 -39.316   0.616  0.00  0.00     0.262 C 
HETATM    8  C   UNK     0     -29.787 -38.196   1.595  0.00  0.00     0.198 C 
HETATM    9  C   UNK     0     -31.197 -38.560   2.018  0.00  0.00     0.182 C 
BRANCH   7  10
HETATM   10  N   UNK     0     -28.449 -38.968  -0.373  0.00  0.00    -0.294 N 
HETATM   11  C   UNK     0     -27.098 -38.913  -0.177  0.00  0.00     0.167 A 
HETATM   12  N   UNK     0     -26.426 -39.166   0.957  0.00  0.00    -0.222 NA
HETATM   13  C   UNK     0     -26.566 -38.539  -1.401  0.00  0.00     0.149 A 
HETATM   14  C   UNK     0     -25.098 -39.008   0.765  0.00  0.00     0.237 A 
HETATM   15  N   UNK     0     -24.440 -38.649  -0.364  0.00  0.00    -0.222 NA
HETATM   16  C   UNK     0     -25.182 -38.409  -1.472  0.00  0.00     0.155 A 
HETATM   17  N   UNK     0     -27.560 -38.369  -2.331  0.00  0.00    -0.236 NA
HETATM   18  C   UNK     0     -28.676 -38.634  -1.684  0.00  0.00     0.214 A 
BRANCH  16  19
HETATM   19  N   UNK     0     -24.559 -38.033  -2.674  0.00  0.00    -0.382 N 
HETATM   20  H   UNK     0     -24.829 -37.180  -3.145  0.00  0.00     0.157 HD
HETATM   21  H   UNK     0     -23.837 -38.625  -3.062  0.00  0.00     0.157 HD
ENDBRANCH  16  19
ENDBRANCH   7  10
BRANCH   8  22
HETATM   22  O   UNK     0     -28.877 -38.163   2.675  0.00  0.00    -0.388 OA
HETATM   23  H   UNK     0     -29.093 -38.894   3.279  0.00  0.00     0.210 HD
ENDBRANCH   8  22
BRANCH   9  24
HETATM   24  O   UNK     0     -31.149 -39.624   2.967  0.00  0.00    -0.390 OA
HETATM   25  H   UNK     0     -31.875 -39.481   3.599  0.00  0.00     0.210 HD
ENDBRANCH   9  24
ENDBRANCH   4   5
ENDBRANCH   3   4
ENDBRANCH   1   3
BRANCH   1  26
HETATM   26  O   UNK     0     -35.525 -36.618  -0.182  0.00  0.00    -0.195 OA
BRANCH  26  27
HETATM   27  P   UNK     0     -36.903 -36.150  -0.880  0.00  0.00     0.410 P 
HETATM   28  O   UNK     0     -38.094 -36.094   0.031  0.00  0.00    -0.631 OA
BRANCH  27  29
HETATM   29  O   UNK     0     -37.057 -37.167  -2.125  0.00  0.00    -0.195 OA
BRANCH  29  30
HETATM   30  P   UNK     0     -36.205 -37.339  -3.487  0.00  0.00     0.399 P 
HETATM   31  O   UNK     0     -36.025 -36.075  -4.276  0.00  0.00    -0.631 OA
BRANCH  30  32
HETATM   32  O   UNK     0     -34.836 -38.031  -2.977  0.00  0.00    -0.307 OA
HETATM   33  H   UNK     0     -33.977 -37.637  -3.242  0.00  0.00     0.222 HD
ENDBRANCH  30  32
BRANCH  30  34
HETATM   34  O   UNK     0     -36.966 -38.535  -4.263  0.00  0.00    -0.307 OA
HETATM   35  H   UNK     0     -37.944 -38.519  -4.319  0.00  0.00     0.222 HD
ENDBRANCH  30  34
ENDBRANCH  29  30
ENDBRANCH  27  29
BRANCH  27  36
HETATM   36  O   UNK     0     -36.521 -34.746  -1.585  0.00  0.00    -0.307 OA
HETATM   37  H   UNK     0     -35.603 -34.606  -1.898  0.00  0.00     0.222 HD
ENDBRANCH  27  36
ENDBRANCH  26  27
ENDBRANCH   1  26
BRANCH   1  38
HETATM   38  O   UNK     0     -36.210 -39.057  -0.121  0.00  0.00    -0.307 OA
HETATM   39  H   UNK     0     -35.953 -39.923  -0.505  0.00  0.00     0.222 HD
ENDBRANCH   1  38
TORSDOF 15
ENDMDL
