REMARK  14 active torsions:
REMARK  status: ('A' for Active; 'I' for Inactive)
REMARK    1  A    between atoms: P_1  and  O_6 
REMARK    2  A    between atoms: P_1  and  O_7 
REMARK    3  A    between atoms: P_1  and  O_8 
REMARK    4  A    between atoms: P_2  and  O_7 
REMARK    5  A    between atoms: P_2  and  O_10 
REMARK    6  A    between atoms: P_2  and  O_11 
REMARK    7  A    between atoms: P_3  and  O_10 
REMARK    8  A    between atoms: P_3  and  O_13 
REMARK    9  A    between atoms: P_3  and  O_14 
REMARK   10  A    between atoms: O_5  and  C_21 
REMARK   11  A    between atoms: O_6  and  C_25 
REMARK   12  A    between atoms: N_16  and  C_23 
REMARK   13  A    between atoms: N_20  and  C_29 
REMARK   14  A    between atoms: C_22  and  C_25 
ROOT
HETATM    1  P   UNK     0       2.590  -1.343  -1.591  0.00  0.00     0.401 P 
HETATM    2  O   UNK     0       1.984  -0.551  -2.713  0.00  0.00    -0.631 OA
ENDROOT
BRANCH   1   3
HETATM    3  O   UNK     0       1.549  -1.794  -0.437  0.00  0.00    -0.294 OA
BRANCH   3   4
HETATM    4  C   UNK     0       0.441  -2.615  -0.766  0.00  0.00     0.215 C 
BRANCH   4   5
HETATM    5  C   UNK     0      -0.367  -2.885   0.496  0.00  0.00     0.177 C 
HETATM    6  O   UNK     0      -0.853  -1.621   0.995  0.00  0.00    -0.356 OA
HETATM    7  C   UNK     0      -2.290  -1.621   0.932  0.00  0.00     0.233 C 
HETATM    8  C   UNK     0      -2.687  -2.744  -0.016  0.00  0.00     0.088 C 
HETATM    9  C   UNK     0      -1.592  -3.756   0.235  0.00  0.00     0.153 C 
BRANCH   7  10
HETATM   10  N   UNK     0      -2.771  -0.303   0.536  0.00  0.00    -0.296 N 
HETATM   11  C   UNK     0      -2.158   0.576  -0.314  0.00  0.00     0.167 A 
HETATM   12  N   UNK     0      -0.993   0.410  -0.958  0.00  0.00    -0.222 NA
HETATM   13  C   UNK     0      -2.998   1.677  -0.370  0.00  0.00     0.149 A 
HETATM   14  C   UNK     0      -0.711   1.496  -1.710  0.00  0.00     0.237 A 
HETATM   15  N   UNK     0      -1.429   2.635  -1.862  0.00  0.00    -0.222 NA
HETATM   16  C   UNK     0      -2.596   2.734  -1.181  0.00  0.00     0.155 A 
HETATM   17  N   UNK     0      -4.102   1.487   0.423  0.00  0.00    -0.236 NA
HETATM   18  C   UNK     0      -3.936   0.292   0.951  0.00  0.00     0.214 A 
BRANCH  16  19
HETATM   19  N   UNK     0      -3.386   3.891  -1.296  0.00  0.00    -0.382 N 
HETATM   20  H   UNK     0      -3.072   4.646  -1.891  0.00  0.00     0.157 HD
HETATM   21  H   UNK     0      -4.257   3.967  -0.788  0.00  0.00     0.157 HD
ENDBRANCH  16  19
ENDBRANCH   7  10
BRANCH   9  22
HETATM   22  O   UNK     0      -1.917  -4.489   1.413  0.00  0.00    -0.393 OA
HETATM   23  H   UNK     0      -1.892  -3.888   2.177  0.00  0.00     0.210 HD
ENDBRANCH   9  22
ENDBRANCH   4   5
ENDBRANCH   3   4
ENDBRANCH   1   3
BRANCH   1  24
HETATM   24  O   UNK     0       3.767  -0.571  -0.796  0.00  0.00    -0.195 OA
BRANCH  24  25
HETATM   25  P   UNK     0       3.765   0.816   0.030  0.00  0.00     0.410 P 
HETATM   26  O   UNK     0       5.083   1.201   0.635  0.00  0.00    -0.631 OA
BRANCH  25  27
HETATM   27  O   UNK     0       2.569   0.613   1.097  0.00  0.00    -0.195 OA
BRANCH  27  28
HETATM   28  P   UNK     0       1.896   1.622   2.166  0.00  0.00     0.399 P 
HETATM   29  O   UNK     0       2.844   2.168   3.193  0.00  0.00    -0.631 OA
BRANCH  28  30
HETATM   30  O   UNK     0       1.189   2.731   1.227  0.00  0.00    -0.307 OA
HETATM   31  H   UNK     0       0.778   3.517   1.646  0.00  0.00     0.222 HD
ENDBRANCH  28  30
BRANCH  28  32
HETATM   32  O   UNK     0       0.651   0.777   2.754  0.00  0.00    -0.307 OA
HETATM   33  H   UNK     0       0.123   1.157   3.488  0.00  0.00     0.222 HD
ENDBRANCH  28  32
ENDBRANCH  27  28
ENDBRANCH  25  27
BRANCH  25  34
HETATM   34  O   UNK     0       3.159   1.889  -1.016  0.00  0.00    -0.307 OA
HETATM   35  H   UNK     0       3.740   2.246  -1.721  0.00  0.00     0.222 HD
ENDBRANCH  25  34
ENDBRANCH  24  25
ENDBRANCH   1  24
BRANCH   1  36
HETATM   36  O   UNK     0       3.299  -2.721  -2.054  0.00  0.00    -0.307 OA
HETATM   37  H   UNK     0       2.832  -3.305  -2.689  0.00  0.00     0.222 HD
ENDBRANCH   1  36
TORSDOF 14
